/*--------------------------------*- C++ -*----------------------------------*\
| =========                 |                                                 |
| \\      /  F ield         | OpenFOAM: The Open Source CFD Toolbox           |
|  \\    /   O peration     | Version:  2.2.2                                 |
|   \\  /    A nd           | Web:      www.OpenFOAM.org                      |
|    \\/     M anipulation  |                                                 |
\*---------------------------------------------------------------------------*/
FoamFile
{
    version     2.0;
    format      ascii;
    class       dictionary;
    location    "system";
    object      ITHACAdict;
}

interpolation       0;
cgIterMax           200;
Jtolerance          1e-3;
JrelativeTolerance  1e-6;

thermocouplesNumber 16;
thermalConductivity 1.0;
heatTranferCoeff    1.0;
Tf                  0.0;

// Number of modes to output and to use for projection
NmodesTout 100;
NmodesTproj 60;
NmodesLambdaOut 100;
NmodesLambdaProj 40;
NmodesDeltaTout 100;
NmodesDeltaTproj 40;

NumberErrorTests  100;

//Test to perform
CGtest    1;
CGnoiseTest   0;
parameterizedBCtest  0;
parameterizedBCerrorTest  0;
