/*--------------------------------*- C++ -*----------------------------------*\
| =========                 |                                                 |
| \\      /  F ield         | OpenFOAM: The Open Source CFD Toolbox           |
|  \\    /   O peration     | Version:  1.5                                   |
|   \\  /    A nd           | Web:      http://www.OpenFOAM.org               |
|    \\/     M anipulation  |                                                 |
\*---------------------------------------------------------------------------*/
FoamFile
{
    version     2.0;
    format      ascii;
    class       dictionary;
    object      thermocouplesDict;
}
// * * * * * * * * * * * * * * * * * * * * * * * * * * * * * * * * * * * * * //

positions
(
    (0.197 1.5E-02 0.12 )
    (0.197 1.5E-02 0.231)
    (0.197 1.5E-02 0.342)
    (0.197 1.5E-02 0.453)
    (0.197 1.5E-02 0.564)
    (0.197 1.5E-02 0.675)
    (0.197 1.5E-02 0.786)
    (0.197 1.5E-02 0.897)
    (0.197 1.5E-02 1.008)
    (0.197 1.5E-02 1.119)

    (0.394 1.5E-02 0.12 )
    (0.394 1.5E-02 0.231)
    (0.394 1.5E-02 0.342)
    (0.394 1.5E-02 0.453)
    (0.394 1.5E-02 0.564)
    (0.394 1.5E-02 0.675)
    (0.394 1.5E-02 0.786)
    (0.394 1.5E-02 0.897)
    (0.394 1.5E-02 1.008)
    (0.394 1.5E-02 1.119)

    (0.591 1.5E-02 0.12 )
    (0.591 1.5E-02 0.231)
    (0.591 1.5E-02 0.342)
    (0.591 1.5E-02 0.453)
    (0.591 1.5E-02 0.564)
    (0.591 1.5E-02 0.675)
    (0.591 1.5E-02 0.786)
    (0.591 1.5E-02 0.897)
    (0.591 1.5E-02 1.008)
    (0.591 1.5E-02 1.119)

    (0.788 1.5E-02 0.12 )
    (0.788 1.5E-02 0.231)
    (0.788 1.5E-02 0.342)
    (0.788 1.5E-02 0.453)
    (0.788 1.5E-02 0.564)
    (0.788 1.5E-02 0.675)
    (0.788 1.5E-02 0.786)
    (0.788 1.5E-02 0.897)
    (0.788 1.5E-02 1.008)
    (0.788 1.5E-02 1.119)

    (0.985 1.5E-02 0.12 )
    (0.985 1.5E-02 0.231)
    (0.985 1.5E-02 0.342)
    (0.985 1.5E-02 0.453)
    (0.985 1.5E-02 0.564)
    (0.985 1.5E-02 0.675)
    (0.985 1.5E-02 0.786)
    (0.985 1.5E-02 0.897)
    (0.985 1.5E-02 1.008)
    (0.985 1.5E-02 1.119)

    (1.182 1.5E-02 0.12 )
    (1.182 1.5E-02 0.231)
    (1.182 1.5E-02 0.342)
    (1.182 1.5E-02 0.453)
    (1.182 1.5E-02 0.564)
    (1.182 1.5E-02 0.675)
    (1.182 1.5E-02 0.786)
    (1.182 1.5E-02 0.897)
    (1.182 1.5E-02 1.008)
    (1.182 1.5E-02 1.119)

    (1.379 1.5E-02 0.12 )
    (1.379 1.5E-02 0.231)
    (1.379 1.5E-02 0.342)
    (1.379 1.5E-02 0.453)
    (1.379 1.5E-02 0.564)
    (1.379 1.5E-02 0.675)
    (1.379 1.5E-02 0.786)
    (1.379 1.5E-02 0.897)
    (1.379 1.5E-02 1.008)
    (1.379 1.5E-02 1.119)

    (1.576 1.5E-02 0.12 )
    (1.576 1.5E-02 0.231)
    (1.576 1.5E-02 0.342)
    (1.576 1.5E-02 0.453)
    (1.576 1.5E-02 0.564)
    (1.576 1.5E-02 0.675)
    (1.576 1.5E-02 0.786)
    (1.576 1.5E-02 0.897)
    (1.576 1.5E-02 1.008)
    (1.576 1.5E-02 1.119)

    (1.773 1.5E-02 0.12 )
    (1.773 1.5E-02 0.231)
    (1.773 1.5E-02 0.342)
    (1.773 1.5E-02 0.453)
    (1.773 1.5E-02 0.564)
    (1.773 1.5E-02 0.675)
    (1.773 1.5E-02 0.786)
    (1.773 1.5E-02 0.897)
    (1.773 1.5E-02 1.008)
    (1.773 1.5E-02 1.119)
);

// ************************************************************************* //
