/*--------------------------------*- C++ -*----------------------------------*\
| =========                 |                                                 |
| \\      /  F ield         | OpenFOAM: The Open Source CFD Toolbox           |
|  \\    /   O peration     | Version:  v1912                                 |
|   \\  /    A nd           | Website:  www.openfoam.com                      |
|    \\/     M anipulation  |                                                 |
\*---------------------------------------------------------------------------*/
FoamFile
{
    version     2.0;
    format      ascii;
    class       polyBoundaryMesh;
    location    "constant/polyMesh";
    object      boundary;
}
// * * * * * * * * * * * * * * * * * * * * * * * * * * * * * * * * * * * * * //

3
(
    hotSide
    {
        type            patch;
        nFaces          6000;
        startFace       886000;
    }
    coldSide
    {
        type            patch;
        nFaces          6000;
        startFace       892000;
    }
    adiabaticPlanes
    {
        type            patch;
        nFaces          16000;
        startFace       898000;
    }
)

// ************************************************************************* //
