/*--------------------------------*- C++ -*----------------------------------*\
| =========                 |                                                 |
| \\      /  F ield         | OpenFOAM: The Open Source CFD Toolbox           |
|  \\    /   O peration     | Version:  v1912                                 |
|   \\  /    A nd           | Website:  www.openfoam.com                      |
|    \\/     M anipulation  |                                                 |
\*---------------------------------------------------------------------------*/
FoamFile
{
    version     2.0;
    format      ascii;
    class       polyBoundaryMesh;
    location    "constant/polyMesh";
    object      boundary;
}
// * * * * * * * * * * * * * * * * * * * * * * * * * * * * * * * * * * * * * //

3
(
    hotSide
    {
        type            patch;
        nFaces          900;
        startFace       78300;
    }
    coldSide
    {
        type            patch;
        nFaces          900;
        startFace       79200;
    }
    adiabaticPlanes
    {
        type            patch;
        nFaces          3600;
        startFace       80100;
    }
)

// ************************************************************************* //
