/*--------------------------------*- C++ -*----------------------------------*\
| =========                 |                                                 |
| \\      /  F ield         | OpenFOAM: The Open Source CFD Toolbox           |
|  \\    /   O peration     | Version:  1.5                                   |
|   \\  /    A nd           | Web:      http://www.OpenFOAM.org               |
|    \\/     M anipulation  |                                                 |
\*---------------------------------------------------------------------------*/
FoamFile
{
    version     2.0;
    format      ascii;
    class       dictionary;
    object      thermocouplesDict;
}
// * * * * * * * * * * * * * * * * * * * * * * * * * * * * * * * * * * * * * //

positions
(
    (-0.5 0.02 0.2)
    (-0.25 0.02 0.2)
    (0 0.02 0.2)
    (0.25 0.02 0.2)
    (0.5 0.02 0.2)

    (-0.5 0.02 0.5)
    (-0.25 0.02 0.5)
    (0 0.02 0.5)
    (0.25 0.02 0.5)
    (0.5 0.02 0.5)

    (-0.5  0.02 0.8)
    (-0.25 0.02 0.8)
    (0     0.02 0.8)
    (0.25  0.02 0.8)
    (0.5   0.02 0.8)
);

timeSamplesNumber 11;
timeSamplesT0     0;
timeSamplesDeltaT 1.0;

// ************************************************************************* //
