/*--------------------------------*- C++ -*----------------------------------*\
| =========                 |                                                 |
| \\      /  F ield         | OpenFOAM: The Open Source CFD Toolbox           |
|  \\    /   O peration     | Version:  v1812                                 |
|   \\  /    A nd           | Web:      www.OpenFOAM.com                      |
|    \\/     M anipulation  |                                                 |
\*---------------------------------------------------------------------------*/
FoamFile
{
    version     2.0;
    format      ascii;
    class       polyBoundaryMesh;
    location    "constant/polyMesh";
    object      boundary;
}
// * * * * * * * * * * * * * * * * * * * * * * * * * * * * * * * * * * * * * //

6
(
    hotSide
    {
        type            patch;
        nFaces          2500;
        startFace       367500;
    }
    coldSide
    {
        type            patch;
        nFaces          2500;
        startFace       370000;
    }
    gammaEx1
    {
        type            patch;
        nFaces          2500;
        startFace       372500;
    }
    gammaEx2
    {
        type            patch;
        nFaces          2500;
        startFace       375000;
    }
    gammaEx3
    {
        type            patch;
        nFaces          2500;
        startFace       377500;
    }
    gammaEx4
    {
        type            patch;
        nFaces          2500;
        startFace       380000;
    }
)

// ************************************************************************* //
