/*--------------------------------*- C++ -*----------------------------------*\
| =========                 |                                                 |
| \\      /  F ield         | OpenFOAM: The Open Source CFD Toolbox           |
|  \\    /   O peration     | Version:  2.2.2                                 |
|   \\  /    A nd           | Web:      www.OpenFOAM.org                      |
|    \\/     M anipulation  |                                                 |
\*---------------------------------------------------------------------------*/
FoamFile
{
    version     2.0;
    format      ascii;
    class       dictionary;
    location    "system";
    object      ITHACAdict;
}

interpolation       0;
cgIterMax           200;
Jtolerance          90;
JrelativeTolerance  1e-3;

thermocouplesNumber 90;
thermalConductivity 300.0;
heatTranferCoeff    5.66e4;
Tf                  0.0;
moldWidth           1.97;
castWidth           1.52;

NumberErrorTests  100;

userDefinedTemperatures 0;
experimentalData        1;
thermocouplesFile       "DanieliSteadyTestData.npy";

//Test to perform
CGtest    0;
CGnoiseTest   0;
parameterizedBCtest  1;
parameterizedBCerrorTest  0;
