/*--------------------------------*- C++ -*----------------------------------*\
| =========                 |                                                 |
| \\      /  F ield         | OpenFOAM: The Open Source CFD Toolbox           |
|  \\    /   O peration     | Version:  2.2.2                                 |
|   \\  /    A nd           | Web:      www.OpenFOAM.org                      |
|    \\/     M anipulation  |                                                 |
\*---------------------------------------------------------------------------*/
FoamFile
{
    version     2.0;
    format      ascii;
    class       dictionary;
    location    "system";
    object      ITHACAdict;
}

interpolation       0;
cgIterMax           200;
Jtolerance          90;
JrelativeTolerance  1e-3;

thermocouplesNumber 90;
//thermalConductivity 300.0;
//density             9000;
//heatCapacity        377;
//heatTranferCoeff    6000.0;
thermalConductivity 3.0; 
density             20.0; 
specificHeat        50.0; 
heatTranferCoeff    7.0; 
Tf                  0.0;

// Number of modes to output and to use for projection
NmodesTout 100;
NmodesTproj 60;
NmodesLambdaOut 100;
NmodesLambdaProj 40;
NmodesDeltaTout 100;
NmodesDeltaTproj 40;

NumberErrorTests  100;

//Test to perform
CGtest    0;
CGnoiseTest   0;
parameterizedBCtest  1;
parameterizedBCerrorTest  0;
