/*--------------------------------*- C++ -*----------------------------------*\
| =========                 |                                                 |
| \\      /  F ield         | OpenFOAM: The Open Source CFD Toolbox           |
|  \\    /   O peration     | Version:  v1812                                 |
|   \\  /    A nd           | Web:      www.OpenFOAM.com                      |
|    \\/     M anipulation  |                                                 |
\*---------------------------------------------------------------------------*/
FoamFile
{
    version     2.0;
    format      ascii;
    class       polyBoundaryMesh;
    location    "constant/polyMesh";
    object      boundary;
}
// * * * * * * * * * * * * * * * * * * * * * * * * * * * * * * * * * * * * * //

3
(
    hotSide
    {
        type            patch;
        nFaces          100;
        startFace       2700;
    }
    coldSide
    {
        type            patch;
        nFaces          100;
        startFace       2800;
    }
    adiabaticSide
    {
        type            patch;
        nFaces          400;
        startFace       2900;
    }
)

// ************************************************************************* //
