/*--------------------------------*- C++ -*----------------------------------*\
| =========                 |                                                 |
| \\      /  F ield         | OpenFOAM: The Open Source CFD Toolbox           |
|  \\    /   O peration     | Version:  v1812                                 |
|   \\  /    A nd           | Web:      www.OpenFOAM.com                      |
|    \\/     M anipulation  |                                                 |
\*---------------------------------------------------------------------------*/
FoamFile
{
    version     2.0;
    format      ascii;
    class       polyBoundaryMesh;
    location    "constant/polyMesh";
    object      boundary;
}
// * * * * * * * * * * * * * * * * * * * * * * * * * * * * * * * * * * * * * //

3
(
    hotSide
    {
        type            patch;
        nFaces          11100;
        startFace       981570;
    }
    coldSide
    {
        type            patch;
        nFaces          11100;
        startFace       992670;
    }
    adiabaticPlanes
    {
        type            patch;
        nFaces          12660;
        startFace       1003770;
    }
)

// ************************************************************************* //
