/*--------------------------------*- C++ -*----------------------------------*\
| =========                 |                                                 |
| \\      /  F ield         | OpenFOAM: The Open Source CFD Toolbox           |
|  \\    /   O peration     | Version:  v1912                                 |
|   \\  /    A nd           | Website:  www.openfoam.com                      |
|    \\/     M anipulation  |                                                 |
\*---------------------------------------------------------------------------*/
FoamFile
{
    version     2.0;
    format      ascii;
    class       polyBoundaryMesh;
    location    "constant/polyMesh";
    object      boundary;
}
// * * * * * * * * * * * * * * * * * * * * * * * * * * * * * * * * * * * * * //

6
(
    hotSide
    {
        type            patch;
        nFaces          100;
        startFace       2700;
    }
    coldSide
    {
        type            patch;
        nFaces          100;
        startFace       2800;
    }
    gammaEx1
    {
        type            patch;
        nFaces          100;
        startFace       2900;
    }
    gammaEx2
    {
        type            patch;
        nFaces          100;
        startFace       3000;
    }
    gammaEx3
    {
        type            patch;
        nFaces          100;
        startFace       3100;
    }
    gammaEx4
    {
        type            patch;
        nFaces          100;
        startFace       3200;
    }
)

// ************************************************************************* //
