/*--------------------------------*- C++ -*----------------------------------*\
| =========                 |                                                 |
| \\      /  F ield         | OpenFOAM: The Open Source CFD Toolbox           |
|  \\    /   O peration     | Version:  v1912                                 |
|   \\  /    A nd           | Website:  www.openfoam.com                      |
|    \\/     M anipulation  |                                                 |
\*---------------------------------------------------------------------------*/
FoamFile
{
    version     2.0;
    format      ascii;
    class       polyBoundaryMesh;
    location    "constant/polyMesh";
    object      boundary;
}
// * * * * * * * * * * * * * * * * * * * * * * * * * * * * * * * * * * * * * //

5
(
    left
    {
        type            patch;
        nFaces          1;
        startFace       19;
    }
    right
    {
        type            patch;
        nFaces          1;
        startFace       20;
    }
    TopBottom
    {
        type            patch;
        nFaces          20;
        startFace       21;
    }
    FrontBack
    {
        type            empty;
        inGroups        1(empty);
        nFaces          40;
        startFace       41;
    }
    defaultFaces
    {
        type            empty;
        inGroups        1(empty);
        nFaces          20;
        startFace       81;
    }
)

// ************************************************************************* //
