/*--------------------------------*- C++ -*----------------------------------*\
| =========                 |                                                 |
| \\      /  F ield         | OpenFOAM: The Open Source CFD Toolbox           |
|  \\    /   O peration     | Version:  1.5                                   |
|   \\  /    A nd           | Web:      http://www.OpenFOAM.org               |
|    \\/     M anipulation  |                                                 |
\*---------------------------------------------------------------------------*/
FoamFile
{
    version     2.0;
    format      ascii;
    class       dictionary;
    object      thermocouplesDict;
}
// * * * * * * * * * * * * * * * * * * * * * * * * * * * * * * * * * * * * * //

positions
(
    (0.182 2E-02 0.11)
    (0.182 2E-02 0.22)
    (0.182 2E-02 0.33)
    (0.182 2E-02 0.44)
    (0.182 2E-02 0.55)
    (0.182 2E-02 0.66)
    (0.182 2E-02 0.77)
    (0.182 2E-02 0.88)
    (0.182 2E-02 0.99)
    (0.182 2E-02 1.1 )

    (0.364 2E-02 0.11)
    (0.364 2E-02 0.22)
    (0.364 2E-02 0.33)
    (0.364 2E-02 0.44)
    (0.364 2E-02 0.55)
    (0.364 2E-02 0.66)
    (0.364 2E-02 0.77)
    (0.364 2E-02 0.88)
    (0.364 2E-02 0.99)
    (0.364 2E-02 1.1 )

    (0.546 2E-02 0.11)
    (0.546 2E-02 0.22)
    (0.546 2E-02 0.33)
    (0.546 2E-02 0.44)
    (0.546 2E-02 0.55)
    (0.546 2E-02 0.66)
    (0.546 2E-02 0.77)
    (0.546 2E-02 0.88)
    (0.546 2E-02 0.99)
    (0.546 2E-02 1.1 )

    (0.728 2E-02 0.11)
    (0.728 2E-02 0.22)
    (0.728 2E-02 0.33)
    (0.728 2E-02 0.44)
    (0.728 2E-02 0.55)
    (0.728 2E-02 0.66)
    (0.728 2E-02 0.77)
    (0.728 2E-02 0.88)
    (0.728 2E-02 0.99)
    (0.728 2E-02 1.1 )

    (0.91  2E-02 0.11)
    (0.91  2E-02 0.22)
    (0.91  2E-02 0.33)
    (0.91  2E-02 0.44)
    (0.91  2E-02 0.55)
    (0.91  2E-02 0.66)
    (0.91  2E-02 0.77)
    (0.91  2E-02 0.88)
    (0.91  2E-02 0.99)
    (0.91  2E-02 1.1 )

    (1.092 2E-02 0.11)
    (1.092 2E-02 0.22)
    (1.092 2E-02 0.33)
    (1.092 2E-02 0.44)
    (1.092 2E-02 0.55)
    (1.092 2E-02 0.66)
    (1.092 2E-02 0.77)
    (1.092 2E-02 0.88)
    (1.092 2E-02 0.99)
    (1.092 2E-02 1.1 )

    (1.274 2E-02 0.11)
    (1.274 2E-02 0.22)
    (1.274 2E-02 0.33)
    (1.274 2E-02 0.44)
    (1.274 2E-02 0.55)
    (1.274 2E-02 0.66)
    (1.274 2E-02 0.77)
    (1.274 2E-02 0.88)
    (1.274 2E-02 0.99)
    (1.274 2E-02 1.1 )

    (1.456 2E-02 0.11)
    (1.456 2E-02 0.22)
    (1.456 2E-02 0.33)
    (1.456 2E-02 0.44)
    (1.456 2E-02 0.55)
    (1.456 2E-02 0.66)
    (1.456 2E-02 0.77)
    (1.456 2E-02 0.88)
    (1.456 2E-02 0.99)
    (1.456 2E-02 1.1 )

    (1.638 2E-02 0.11)
    (1.638 2E-02 0.22)
    (1.638 2E-02 0.33)
    (1.638 2E-02 0.44)
    (1.638 2E-02 0.55)
    (1.638 2E-02 0.66)
    (1.638 2E-02 0.77)
    (1.638 2E-02 0.88)
    (1.638 2E-02 0.99)
    (1.638 2E-02 1.1 )

    (1.82  2E-02 0.11)
    (1.82  2E-02 0.22)
    (1.82  2E-02 0.33)
    (1.82  2E-02 0.44)
    (1.82  2E-02 0.55)
    (1.82  2E-02 0.66)
    (1.82  2E-02 0.77)
    (1.82  2E-02 0.88)
    (1.82  2E-02 0.99)
    (1.82  2E-02 1.1 )
);

// ************************************************************************* //
