/*--------------------------------*- C++ -*----------------------------------*\
| =========                 |                                                 |
| \\      /  F ield         | OpenFOAM: The Open Source CFD Toolbox           |
|  \\    /   O peration     | Version:  2.2.2                                 |
|   \\  /    A nd           | Web:      www.OpenFOAM.org                      |
|    \\/     M anipulation  |                                                 |
\*---------------------------------------------------------------------------*/
FoamFile
{
    version     2.0;
    format      ascii;
    class       dictionary;
    location    "system";
    object      ITHACAdict;
}

thermalConductivity 2.0; 
density             3.0; 
specificHeat        5.0; 
heatTranferCoeff    7.0; 
Tf                  300.0;
a		    5;
b		    10;
c		    15;
d		    20;


//Test to perform
directProblemTest    0;
parameterizedBCtest  1;
