/*--------------------------------*- C++ -*----------------------------------*\
| =========                 |                                                 |
| \\      /  F ield         | OpenFOAM: The Open Source CFD Toolbox           |
|  \\    /   O peration     | Version:  2.2.2                                 |
|   \\  /    A nd           | Web:      www.OpenFOAM.org                      |
|    \\/     M anipulation  |                                                 |
\*---------------------------------------------------------------------------*/
FoamFile
{
    version     2.0;
    format      ascii;
    class       dictionary;
    location    "system";
    object      ITHACAdict;
}

thermalConductivity 383.0; 
density             8940.0; 
specificHeat        390.0; 
heatTranferCoeff    5.66e4; 
Tf                  350.0;
a		    1100;
b		    1200;
c		    3000;
d		    14;
timeBasisType       constant;
maxFrequency        0.1;
linSysSolver        TSVD;
TSVDtruncation      5;
shapeParameter      .6;
NmodesT0            20;
T0projectionTol     1e-3;


//Test to perform
parameterizedBC_steadyTest 1;
parameterizedBC_unsteadyTest 1;
parameterizedBC_unsteadyTestFULL 1;

