/*--------------------------------*- C++ -*----------------------------------*\
| =========                 |                                                 |
| \\      /  F ield         | OpenFOAM: The Open Source CFD Toolbox           |
|  \\    /   O peration     | Version:  2.2.2                                 |
|   \\  /    A nd           | Web:      www.OpenFOAM.org                      |
|    \\/     M anipulation  |                                                 |
\*---------------------------------------------------------------------------*/
FoamFile
{
    version     2.0;
    format      ascii;
    class       dictionary;
    location    "system";
    object      ITHACAdict;
}

interpolation       0;
cgIterMax           200;
Jtolerance          1e-4;
JrelativeTolerance  1e-3;

thermocouplesNumber 90;
thermalConductivity 300.0;
heatTranferCoeff    6000.0;
Tf                  300.0;

// Number of modes to output and to use for projection
NmodesTout 100;
NmodesTproj 60;
NmodesLambdaOut 100;
NmodesLambdaProj 40;
NmodesDeltaTout 100;
NmodesDeltaTproj 40;

//Test to perform
fullOrderTest  	   0;
parametrizedBC_RBFtest 0;
parametrizedBC_PODtest 1;
parametrizedBCerrorTest 0;
parametrizedBCregularizationTest 0;
MarquardtTest  	   0;
podHeatFluxMarquardtTest 0;
reducedMarquardtTest 0;
testNumberOfBasis  0;
reducedCGimplementationTest 0;
speedUpTest        0;
