/*--------------------------------*- C++ -*----------------------------------*\
| =========                 |                                                 |
| \\      /  F ield         | OpenFOAM: The Open Source CFD Toolbox           |
|  \\    /   O peration     | Version:  1.5                                   |
|   \\  /    A nd           | Web:      http://www.OpenFOAM.org               |
|    \\/     M anipulation  |                                                 |
\*---------------------------------------------------------------------------*/
FoamFile
{
    version     2.0;
    format      ascii;
    class       dictionary;
    object      thermocouplesDict;
}
// * * * * * * * * * * * * * * * * * * * * * * * * * * * * * * * * * * * * * //

positions
(
    (0.2 0.02 0.2)
    (0.5 0.02 0.2)
    (0.8 0.02 0.2)
    (0.2 0.02 0.5)
    (0.5 0.02 0.5)
    (0.8 0.02 0.5)
    (0.2 0.02 0.8)
    (0.5 0.02 0.8)
    (0.8 0.02 0.8)
);

timeSamplesNumber 5;
timeSamplesT0     5;
timeSamplesDeltaT 1.0;

// ************************************************************************* //
