/*--------------------------------*- C++ -*----------------------------------*\
| =========                 |                                                 |
| \\      /  F ield         | OpenFOAM: The Open Source CFD Toolbox           |
|  \\    /   O peration     | Version:  1.5                                   |
|   \\  /    A nd           | Web:      http://www.OpenFOAM.org               |
|    \\/     M anipulation  |                                                 |
\*---------------------------------------------------------------------------*/
FoamFile
{
    version     2.0;
    format      ascii;
    class       dictionary;
    object      thermocouplesDict;
}
// * * * * * * * * * * * * * * * * * * * * * * * * * * * * * * * * * * * * * //

positions
(
    (-0.788 1.5E-02 0.12 ) 
    (-0.788 1.5E-02 0.231)
    (-0.788 1.5E-02 0.342)
    (-0.788 1.5E-02 0.453)
    (-0.788 1.5E-02 0.564)
    (-0.788 1.5E-02 0.675)
    (-0.788 1.5E-02 0.786)
    (-0.788 1.5E-02 0.897)
    (-0.788 1.5E-02 1.008)
    (-0.788 1.5E-02 1.119)
    (-0.591 1.5E-02 0.12 )
    (-0.591 1.5E-02 0.231)
    (-0.591 1.5E-02 0.342)
    (-0.591 1.5E-02 0.453)
    (-0.591 1.5E-02 0.564)
    (-0.591 1.5E-02 0.675)
    (-0.591 1.5E-02 0.786)
    (-0.591 1.5E-02 0.897)
    (-0.591 1.5E-02 1.008)
    (-0.591 1.5E-02 1.119)
    (-0.394 1.5E-02 0.12 )
    (-0.394 1.5E-02 0.231)
    (-0.394 1.5E-02 0.342)
    (-0.394 1.5E-02 0.453)
    (-0.394 1.5E-02 0.564)
    (-0.394 1.5E-02 0.675)
    (-0.394 1.5E-02 0.786)
    (-0.394 1.5E-02 0.897)
    (-0.394 1.5E-02 1.008)
    (-0.394 1.5E-02 1.119)
    (-0.197 1.5E-02 0.12 )
    (-0.197 1.5E-02 0.231)
    (-0.197 1.522717825567E-02 0.342) 
    (-0.197 1.755015172304E-02 0.453)
    (-0.197 1.97065456836E-02 0.564)
    (-0.197 2.176914997328E-02 0.675)
    (-0.197 2.379509978181E-02 0.786)
    (-0.197 2.583577669034E-02 0.897)
    (-0.197 2.794543620833E-02 1.008)
    (-0.197 3.019068457759E-02 1.119)
    (0. 1.5E-02 0.12)
    (0. 1.5E-02 0.231)
    (2.12681724084E-18 1.686667318E-02 0.342)
    (8.261169526236E-18 2.180002372714E-02 0.453) 
    (1.439552181163E-17 2.673337427428E-02 0.564)
    (2.052987409703E-17 3.166672482142E-02 0.675)
    (2.666422638242E-17 3.660007536857E-02 0.786)
    (3.279857866782E-17 4.15334259157E-02 0.897)
    (3.893293095321E-17 4.646677646285E-02 1.008)
    (4.506728323861E-17 5.140012700999E-02 1.119)
    (0.197 1.5E-02 0.12)
    (0.197 1.5E-02 0.231)
    (0.197 1.522717825567E-02 0.342)
    (0.197 1.755015172304E-02 0.453)
    (0.197 1.97065456836E-02 0.564)
    (0.197 2.176914997328E-02 0.675)
    (0.197 2.379509978181E-02 0.786)
    (0.197 2.583577669034E-02 0.897)
    (0.197 2.794543620833E-02 1.008)
    (0.197 3.019068457759E-02 1.119) 
    (0.394 1.5E-02 0.12)
    (0.394 1.5E-02 0.231) 
    (0.394 1.5E-02 0.342)
    (0.394 1.5E-02 0.453)
    (0.394 1.5E-02 0.564)
    (0.394 1.5E-02 0.675)
    (0.394 1.5E-02 0.786)
    (0.394 1.5E-02 0.897)
    (0.394 1.5E-02 1.008)
    (0.394 1.5E-02 1.119)
    (0.591 1.5E-02 0.12)
    (0.591 1.5E-02 0.231)
    (0.591 1.5E-02 0.342)
    (0.591 1.5E-02 0.453)
    (0.591 1.5E-02 0.564)
    (0.591 1.5E-02 0.675)
    (0.591 1.5E-02 0.786)
    (0.591 1.5E-02 0.897)
    (0.591 1.5E-02 1.008)
    (0.591 1.5E-02 1.119)
    (0.788 1.5E-02 0.12)
    (0.788 1.5E-02 0.231)
    (0.788 1.5E-02 0.342)
    (0.788 1.5E-02 0.453)
    (0.788 1.5E-02 0.564)
    (0.788 1.5E-02 0.675)
    (0.788 1.5E-02 0.786)
    (0.788 1.5E-02 0.897)
    (0.788 1.5E-02 1.008)
    (0.788 1.5E-02 1.119)
);

// ************************************************************************* //
