/*--------------------------------*- C++ -*----------------------------------*\
| =========                 |                                                 |
| \\      /  F ield         | OpenFOAM: The Open Source CFD Toolbox           |
|  \\    /   O peration     | Version:  v1806                                 |
|   \\  /    A nd           | Web:      www.OpenFOAM.com                      |
|    \\/     M anipulation  |                                                 |
\*---------------------------------------------------------------------------*/
FoamFile
{
    version     2.0;
    format      ascii;
    class       dictionary;
    object      blockMeshDict;
}
// * * * * * * * * * * * * * * * * * * * * * * * * * * * * * * * * * * * * * //

scale   0.01;

vertices
(
    (0 0 0)
    (197 0 0)
    (197 10 0)
    (0 10 0)

    (0 0 120)
    (197 0 120)
    (197 10 120)
    (0 10 120)
);



blocks
(
    hex (0 1 2 3 4 5 6 7) (30 30 30) simpleGrading (1 1 1)
);

edges
(
);

boundary
(
    hotSide
    {
        type patch;
        faces
        (
            (0 1 5 4)
        );
    }
    coldSide
    {
        type patch;
        faces
        (
            (3 2 6 7)
        );
    }
    adiabaticPlanes
    {
        type patch;
        faces
        (
            (0 4 7 3)
            (4 5 6 7)
            (0 1 2 3)
            (1 5 6 2)
         );
    }
);


// ************************************************************************* //
