/*--------------------------------*- C++ -*----------------------------------*\
| =========                 |                                                 |
| \\      /  F ield         | OpenFOAM: The Open Source CFD Toolbox           |
|  \\    /   O peration     | Version:  2.2.2                                 |
|   \\  /    A nd           | Web:      www.OpenFOAM.org                      |
|    \\/     M anipulation  |                                                 |
\*---------------------------------------------------------------------------*/
FoamFile
{
    version     2.0;
    format      ascii;
    class       dictionary;
    location    "system";
    object      ITHACAdict;
}

interpolation       0;
cgIterMax           200;
Jtolerance          1e-3;
JrelativeTolerance  1e-6;

thermocouplesNumber 16;
thermalConductivity 3.0;
heatTranferCoeff    5.0;
a	2.0;
b	2.5;
c	3.;
d	3.5;

NumberErrorTests  100;

//Test to perform
CGtest    0;
CGnoiseTest   0;
parameterizedBCtest  1;
parameterizedBCerrorTest  0;
